This is a test file.
New text added.

new line.